output/compact_ny_2025/electrical_constant_total_diagnostic/S5_2025_HIGH_TOTAL_EAST_PUBLIC/audit_bus.csv
source_bus,bus_type,vm_pu,vmin_pu,vmax_pu,p_mismatch_mw,q_mismatch_mvar,voltage_below_min_pu,voltage_above_max_pu,violated,invalid_voltage_bounds
37,1,0.940906411371577,0.9,1.1,-2.4114115149132e-09,5.23710762256879e-10,0,0,0,0
38,1,0.94216776191216,0.9,1.1,-5.72174485569121e-09,3.07862069170994e-10,0,0,0,0
39,1,0.923448066528448,0.9,1.1,-5.32122612639796e-09,5.38562971996726e-10,0,0,0,0
40,1,0.961715333644117,0.9,1.1,1.43230630768337e-10,-2.03705553546936e-10,0,0,0,0
41,1,0.98518821878523,0.9,1.1,2.5138717774098e-09,-1.87014848052058e-11,0,0,0,0
42,3,1.01645850115022,0.9,1.1,0,0,0,0,0,0
43,1,0.972159259167789,0.9,1.1,-5.66859625905636e-09,2.47096787475698e-10,0,0,0,0
44,1,0.945776842630212,0.9,1.1,3.24519078276353e-10,-4.60109728095404e-10,0,0,0,0
45,1,0.936240042920648,0.9,1.1,3.11348458126304e-09,-1.67027280895127e-10,0,0,0,0
46,1,0.92718106694638,0.9,1.1,-6.33530561344742e-10,1.4128076486486e-10,0,0,0,0
47,2,1.00981630799408,0.9,1.1,-1.2112195690861e-09,9.9475983006414e-14,0,0,0,0
48,2,0.985130694830276,0.9,1.1,-5.27397148175623e-09,-2.27373675443232e-13,0,0,0,0
49,1,0.962003372044516,0.9,1.1,2.88082446786575e-10,-1.07771569446413e-11,0,0,0,0
50,2,1.03286641527386,0.9,1.1,-2.04886418941896e-09,-1.13686837721616e-13,0,0,0,0
51,2,1.04444325901089,0.9,1.1,4.73363570563379e-10,1.70530256582424e-12,0,0,0,0
52,1,0.999064401036503,0.9,1.1,-6.58110832644709e-10,1.01874383482479e-10,0,0,0,0
53,2,0.965269151866332,0.9,1.1,2.38304664890165e-09,-2.8421709430404e-13,0,0,0,0
54,2,0.980276901646237,0.9,1.1,-2.24929408432217e-10,-2.35900188272353e-12,0,0,0,0
55,2,0.985471866572117,0.9,1.1,-6.80358880345011e-10,5.04485342389671e-13,0,0,0,0
56,2,0.975265794916834,0.9,1.1,-5.9515059547266e-10,7.38964445190504e-13,0,0,0,0
57,2,1.00615514859231,0.9,1.1,7.29212246142197e-10,-4.83169060316868e-13,0,0,0,0
58,1,0.963655807371017,0.9,1.1,1.56806123641218e-10,1.41984202173262e-11,0,0,0,0
59,1,0.961742601555597,0.9,1.1,-1.48929757415317e-10,2.97646352009906e-11,0,0,0,0
60,2,0.940979086899457,0.9,1.1,-2.00301997210772e-11,4.90274487674469e-13,0,0,0,0
61,2,0.906816298596178,0.9,1.1,4.25757207267452e-11,-4.2632564145606e-14,0,0,0,0
62,1,0.972033972774222,0.9,1.1,-1.38640835898534e-10,1.22101248627444e-10,0,0,0,0
63,1,0.991486231454662,0.9,1.1,2.3352791792153e-10,9.71119020908804e-11,0,0,0,0
64,1,1.01711957023145,0.9,1.1,2.20383356008824e-09,-2.69844591116453e-10,0,0,0,0
65,2,1.09355111453315,0.9,1.1,2.50652387734362e-09,2.27373675443232e-13,0,0,0,0
66,1,0.985360304853104,0.9,1.1,2.05290007215808e-10,7.06018576934753e-11,0,0,0,0
67,1,0.975753622263771,0.9,1.1,1.57944768375273e-09,1.45477033197672e-10,0,0,0,0
68,2,0.919628174466768,0.9,1.1,-1.94020799426653e-09,3.69482222595252e-13,0,0,0,0
69,1,0.991857921129724,0.9,1.1,-1.15543025749979e-09,2.41301150843688e-11,0,0,0,0
70,1,1.00802499273694,0.9,1.1,4.43244056820446e-10,-1.28167583093503e-11,0,0,0,0
71,2,1.02989459308198,0.9,1.1,8.18033640825888e-10,8.5265128291212e-13,0,0,0,0
72,2,1.02716313870959,0.9,1.1,6.13624706602423e-11,5.11590769747272e-13,0,0,0,0
73,1,0.926502755654132,0.9,1.1,5.00023134009098e-09,-6.24240215075733e-10,0,0,0,0
74,1,0.955874110694687,0.9,1.1,4.44040892944031e-09,1.25799370920276e-10,0,0,0,0
75,1,0.956547496710116,0.9,1.1,-1.32788002815687e-10,4.96824803519758e-13,0,0,0,0
76,1,0.956534066204889,0.9,1.1,-3.16663317789789e-09,3.38090444529371e-10,0,0,0,0
77,1,0.957409904453223,0.9,1.1,1.15102903130809e-10,9.31885586608043e-12,0,0,0,0
78,2,0.965665801436824,0.9,1.1,4.50333459411922e-09,-1.54614099301398e-11,0,0,0,0
79,2,0.968185240819817,0.9,1.1,6.6946768129128e-09,2.95585778076202e-12,0,0,0,0
80,2,0.990369769833275,0.9,1.1,5.5449618230341e-09,-6.25277607468888e-13,0,0,0,0
81,1,0.966110637350131,0.9,1.1,-3.85693965654355e-09,4.10992129218357e-10,0,0,0,0
82,2,0.969529988452128,0.9,1.1,7.1953536462388e-09,-3.41060513164848e-13,0,0,0,0
9001,1,0.923988926906878,0.9,1.1,-2.12730537732509e-11,6.76278454099398e-12,0,0,0,0
9002,1,0.940802296012935,0.9,1.1,2.71620500167026e-09,-2.24687817244586e-10,0,0,0,0
9003,1,0.978090305954542,0.9,1.1,-1.60332547238795e-09,6.18172180111287e-11,0,0,0,0
858,1,0.932425871768288,0.9,1.1,7.2562159209329e-10,-4.54657199815311e-11,0,0,0,0
774,1,0.956991567438857,0.9,1.1,4.74515797715874e-12,-2.66000591820125e-12,0,0,0,0
9101,1,0.951239530314281,0.9,1.1,-2.3035953200835e-09,1.01425217456492e-10,0,0,0,0
9102,1,0.952709037790398,0.9,1.1,-5.54113238439468e-10,7.11492279285374e-11,0,0,0,0
9103,1,0.950881375556427,0.9,1.1,-9.60952045810392e-11,-6.30058750689697e-11,0,0,0,0
9104,1,0.925610058384438,0.9,1.1,8.32756590117211e-11,-7.22138050869446e-12,0,0,0,0
1220,1,0.919393248431669,0.9,1.1,-6.81187188997141e-10,3.22203423031336e-10,0,0,0,0
1130,1,0.966713239516203,0.9,1.1,1.39046765210862e-10,-7.34829790974987e-12,0,0,0,0
557,1,0.966753986876025,0.9,1.1,2.07998883290281e-10,-1.31343783181676e-11,0,0,0,0
1529,1,0.967826756150724,0.9,1.1,5.63044715522145e-13,-2.6698812610025e-11,0,0,0,0
1493,1,0.968082979345931,0.9,1.1,1.73829533287189e-12,-2.7459607874188e-11,0,0,0,0
601,1,0.968157186000474,0.9,1.1,-1.48002836316708e-11,-1.00426590189115e-11,0,0,0,0
1129,1,0.966057474613547,0.9,1.1,-1.77572518334173e-11,7.55374170409885e-12,0,0,0,0
9111,1,0.968480353138226,0.9,1.1,4.72093785513154e-12,-4.07864681165365e-11,0,0,0,0
9112,1,0.968458793050074,0.9,1.1,-1.76331105922566e-11,6.39013557542329e-11,0,0,0,0
9113,1,0.968654400792339,0.9,1.1,1.07923229279164e-11,2.57814578392566e-11,0,0,0,0
9114,1,0.968746721056955,0.9,1.1,-3.13773543231711e-12,5.29708658220646e-12,0,0,0,0
